Circuit: * C:\Users\12345\Documents\Dev\potentiostat\CAD\LTSpice\Control Amp\ADA4622\Control AMP ADA4625 Transient (Experimental).asc

Direct Newton iteration for .op point succeeded.

Date: Thu Jan 18 23:36:59 2024
Total elapsed time: 0.584 seconds.

tnom = 27
temp = 27
method = modified trap
totiter = 43557
traniter = 43554
tranpoints = 21778
accept = 20494
rejected = 1284
matrix size = 87
fillins = 81
solver = Normal
Avg thread counts: 1.1/1.3/1.3/1.1
Matrix Compiler1: 7.42 KB object code size  1.7/1.2/[0.6]
Matrix Compiler2: 9.18 KB object code size  0.8/1.1/[0.7]

