Circuit: * C:\Users\12345\Documents\Dev\potentiostat\CAD\LTSpice\Control Amp\ADA4622\Control Amp ADA4625 (Experimental).asc

Direct Newton iteration failed to find .op point.  (Use ".option noopiter" to skip.)
Starting Gmin stepping
Increasing initial diagonal Gmin to 100
Increasing initial diagonal Gmin to 1000
Gmin = 1000
Gmin = 107.374
Gmin = 11.5292
Gmin = 1.23794
Gmin = 0.132923
Gmin = 0.0142725
Gmin = 0.0015325
Gmin = 0.00016455
Gmin = 1.76685e-05
Gmin = 1.89714e-06
Gmin = 2.03704e-07
Gmin = 2.18725e-08
Gmin = 2.34854e-09
vernier = 0.5
vernier = 0.25
vernier = 0.125
Gmin = 1.57039e-09
vernier = 0.166667
vernier = 0.222222
Gmin = 1.06185e-09
vernier = 0.296296
Gmin = 5.66873e-10
vernier = 0.395061
vernier = 0.526748
Gmin = 2.06939e-10
vernier = 0.702331
vernier = 0.936441
Gmin = 4.38319e-11
vernier = 1
Gmin = 5.01731e-12
Gmin = 5.3873e-13
Gmin = 0
Gmin stepping succeeded in finding the operating point.

Early termination of direct N-R iteration.
Direct Newton iteration failed to find .op point.  (Use ".option noopiter" to skip.)
Starting Gmin stepping
Increasing initial diagonal Gmin to 100
Increasing initial diagonal Gmin to 1000
Gmin = 1000
Gmin = 107.374
Gmin = 11.5292
Gmin = 1.23794
Gmin = 0.132923
Gmin = 0.0142725
Gmin = 0.0015325
Gmin = 0.00016455
Gmin = 1.76685e-05
Gmin = 1.89714e-06
Gmin = 2.03704e-07
Gmin = 2.18725e-08
vernier = 0.5
vernier = 0.25
vernier = 0.125
Gmin = 1.72064e-08
vernier = 0.0625
vernier = 0.03125
Gmin = 1.61698e-08
vernier = 0.0416667
vernier = 0.0555555
Gmin = 1.4466e-08
vernier = 0.074074
vernier = 0.0987653
Gmin = 1.21331e-08
vernier = 0.131687
Gmin = 9.13418e-09
vernier = 0.175583
vernier = 0.23411
Gmin = 5.76173e-09
vernier = 0.312147
vernier = 0.416196
Gmin = 2.80322e-09
vernier = 0.554928
vernier = 0.277464
vernier = 0.138732
vernier = 0.0693659
vernier = 0.034683
Gmin = 1.70889e-09
vernier = 0.0173415
vernier = 0.00867074
vernier = 0.00433537
vernier = 0.00216769
vernier = 0.00108384
vernier = 0.000541921
vernier = 0.000406441
Gmin = 0
Gmin stepping failed

Starting source stepping with srcstepmethod=0
Could not converge to DC with sources off!
Starting source stepping with srcstepmethod=1
Source Step = 3.0303%
Source Step = 15.1545%
Source stepping failed

Pseudo Transient succeeded in finding the operating point at 327.691 ms.

Date: Wed Jan 17 13:06:16 2024
Total elapsed time: 0.727 seconds.

tnom = 27
temp = 27
method = trap
totiter = 10261
traniter = 0
tranpoints = 0
accept = 0
rejected = 2
matrix size = 87
fillins = 143
solver = Normal
Avg thread counts: 1.6/16.0/7.6/1.6
Matrix Compiler1: 11.44 KB object code size  4.8/2.8/[1.5]
Matrix Compiler2: 9.99 KB object code size  2.2/2.4/[1.2]

