Circuit: * C:\Users\12345\Documents\Dev\potentiostat\CAD\LTSpice\Control Amp\ADA4625\Control AMP ADA4625 Transient.asc

Direct Newton iteration for .op point succeeded.
.step rewe=5000 cere=1
.step rewe=10000 cere=1
.step rewe=100000 cere=1
.step rewe=5000 cere=1000
.step rewe=10000 cere=1000
.step rewe=100000 cere=1000
.step rewe=5000 cere=5000
.step rewe=10000 cere=5000
.step rewe=100000 cere=5000

Date: Tue Jan 16 14:44:53 2024
Total elapsed time: 8.582 seconds.

tnom = 27
temp = 27
method = modified trap
totiter = 59651
traniter = 59648
tranpoints = 29825
accept = 27689
rejected = 2136
matrix size = 87
fillins = 81
solver = Normal
Avg thread counts: 1.1/1.2/1.2/1.1
Matrix Compiler1: 7.42 KB object code size  3.6/2.2/[1.2]
Matrix Compiler2: 9.18 KB object code size  1.7/2.3/[1.4]

