Circuit: * C:\Users\12345\Documents\Dev\potentiostat\CAD\LTSpice\Control Amp\ADA4625\Control AMP ADA4625 Noise.asc

Direct Newton iteration for .op point succeeded.
.step rewe=5000 cere=1
.step rewe=10000 cere=1
.step rewe=100000 cere=1
.step rewe=5000 cere=1000
.step rewe=10000 cere=1000
.step rewe=100000 cere=1000
.step rewe=5000 cere=5000
.step rewe=10000 cere=5000
.step rewe=100000 cere=5000

Date: Tue Jan 16 14:47:15 2024
Total elapsed time: 0.875 seconds.

tnom = 27
temp = 27
method = trap
totiter = 3
traniter = 0
tranpoints = 0
accept = 0
rejected = 0
matrix size = 87
fillins = 81
solver = Normal
Avg thread counts: 16.0/0.0/16.0/6.9
Matrix Compiler1:     449 opcodes
Matrix Compiler2: 9.14 KB object code size
