Circuit: * C:\Users\12345\Documents\Dev\potentiostat\CAD\LTSpice\System\Mixed System.asc

Direct Newton iteration for .op point succeeded.
Ignoring empty pin current: Ix(u1:in+)
Ignoring empty pin current: Ix(u1:in-)
Ignoring empty pin current: Ix(u1:vcc)
Ignoring empty pin current: Ix(u1:vee)
Ignoring empty pin current: Ix(u1:out)
Ignoring empty pin current: Ix(x2:v+)
Ignoring empty pin current: Ix(x2:we)
Ignoring empty pin current: Ix(x1:dac_out)
Ignoring empty pin current: Ix(x1:v+)
Ignoring empty pin current: Ix(u1:in+)
Ignoring empty pin current: Ix(u1:in-)
Ignoring empty pin current: Ix(u1:vcc)
Ignoring empty pin current: Ix(u1:vee)
Ignoring empty pin current: Ix(u1:out)
Ignoring empty pin current: Ix(x2:v+)
Ignoring empty pin current: Ix(x2:we)
Ignoring empty pin current: Ix(x1:dac_out)
Ignoring empty pin current: Ix(x1:v+)

Date: Wed Feb  7 14:08:56 2024
Total elapsed time: 126.764 seconds.

tnom = 27
temp = 27
method = modified trap
totiter = 1188460
traniter = 1188455
tranpoints = 296510
accept = 226036
rejected = 70474
matrix size = 282
fillins = 319
solver = Alternate
Avg thread counts: 3.0/1.0/1.0/1.0
Matrix Compiler1: 43.24 KB object code size  26.9/20.0/[14.8]
Matrix Compiler2: 34.18 KB object code size  12.7/12.7/[8.3]

