Circuit: * C:\Users\12345\Documents\Dev\potentiostat\CAD\LTSpice\System\OPA2392_System.asc

Direct Newton iteration for .op point succeeded.
Ignoring empty pin current: Ix(u1:in+)
Ignoring empty pin current: Ix(u1:in-)
Ignoring empty pin current: Ix(u1:vcc)
Ignoring empty pin current: Ix(u1:vee)
Ignoring empty pin current: Ix(u1:out)
Ignoring empty pin current: Ix(control:dac_out)
Ignoring empty pin current: Ix(control:v+)
Ignoring empty pin current: Ix(transimpedance:v+)
Ignoring empty pin current: Ix(transimpedance:we)
Ignoring empty pin current: Ix(u1:in+)
Ignoring empty pin current: Ix(u1:in-)
Ignoring empty pin current: Ix(u1:vcc)
Ignoring empty pin current: Ix(u1:vee)
Ignoring empty pin current: Ix(u1:out)
Ignoring empty pin current: Ix(control:dac_out)
Ignoring empty pin current: Ix(control:v+)
Ignoring empty pin current: Ix(transimpedance:v+)
Ignoring empty pin current: Ix(transimpedance:we)

Date: Sat Jan 27 22:52:28 2024
Total elapsed time: 15.656 seconds.

tnom = 27
temp = 27
method = modified trap
totiter = 255127
traniter = 255122
tranpoints = 84503
accept = 70245
rejected = 14258
matrix size = 296
fillins = 348
solver = Alternate
Avg thread counts: 5.0/1.1/1.0/1.0
Matrix Compiler1:    2018 opcodes  11.9/[9.1]/9.8
Matrix Compiler2: 35.70 KB object code size  5.4/5.9/[4.8]

