Circuit: * C:\Users\12345\Documents\Dev\potentiostat\CAD\TransAmp\transamp.asc

.step x=1000
Direct Newton iteration failed to find .op point.  (Use ".option noopiter" to skip.)
Starting Gmin stepping
Gmin = 10
Gmin = 1.07374
Gmin = 0.115292
Gmin = 0.0123794
Gmin = 0.00132923
Gmin = 0.000142725
Gmin = 1.5325e-05
Gmin = 1.6455e-06
Gmin = 1.76685e-07
Gmin = 1.89714e-08
Gmin = 2.03704e-09
Gmin = 2.18725e-10
Gmin = 2.34854e-11
Gmin = 2.52173e-12
Gmin = 2.70769e-13
Gmin = 0
Gmin stepping succeeded in finding the operating point.

.step x=2200
.step x=4700
.step x=10000
.step x=22000
.step x=47000

Date: Thu Jan 11 15:51:30 2024
Total elapsed time: 2.928 seconds.

tnom = 27
temp = 27
method = trap
totiter = 40058
traniter = 0
tranpoints = 0
accept = 0
rejected = 0
matrix size = 11
fillins = 3
solver = Normal
Avg thread counts: 1.1/0.0/1.3/1.1
Matrix Compiler1:      34 opcodes  0.5/[0.3]/0.3
Matrix Compiler2: off  [0.3]/0.4/0.3

