Circuit: * C:\Users\12345\Documents\Dev\potentiostat\CAD\LTSpice\Control Amp\ADA4625\Control Amp ADA4625.asc

.step rewe=5000 cere=1
Direct Newton iteration failed to find .op point.  (Use ".option noopiter" to skip.)
Starting Gmin stepping
Increasing initial diagonal Gmin to 100
Increasing initial diagonal Gmin to 1000
Gmin = 1000
Gmin = 107.374
Gmin = 11.5292
Gmin = 1.23794
Gmin = 0.132923
Gmin = 0.0142725
Gmin = 0.0015325
Gmin = 0.00016455
Gmin = 1.76685e-05
Gmin = 1.89714e-06
Gmin = 2.03704e-07
Gmin = 2.18725e-08
Gmin = 2.34854e-09
vernier = 0.5
vernier = 0.25
vernier = 0.125
Gmin = 1.5228e-09
vernier = 0.166667
vernier = 0.222222
Gmin = 1.00596e-09
vernier = 0.296296
Gmin = 5.27779e-10
vernier = 0.395061
vernier = 0.526748
Gmin = 1.82859e-10
vernier = 0.702331
vernier = 0.936441
Gmin = 3.5517e-11
vernier = 1
Gmin = 4.01385e-12
Gmin = 4.30984e-13
Gmin = 0
Gmin stepping succeeded in finding the operating point.

Direct Newton iteration failed to find .op point.  (Use ".option noopiter" to skip.)
Starting Gmin stepping
Increasing initial diagonal Gmin to 100
Increasing initial diagonal Gmin to 1000
Gmin = 1000
Gmin = 107.374
Gmin = 11.5292
Gmin = 1.23794
Gmin = 0.132923
Gmin = 0.0142725
Gmin = 0.0015325
Gmin = 0.00016455
Gmin = 1.76685e-05
Gmin = 1.89714e-06
Gmin = 2.03704e-07
Gmin = 2.18725e-08
vernier = 0.5
vernier = 0.25
vernier = 0.125
Gmin = 1.87706e-08
vernier = 0.0625
vernier = 0.03125
Gmin = 1.79111e-08
vernier = 0.0416667
vernier = 0.0555555
Gmin = 1.60239e-08
vernier = 0.074074
vernier = 0.0987653
Gmin = 1.34397e-08
vernier = 0.131687
Gmin = 1.01179e-08
vernier = 0.175583
vernier = 0.23411
Gmin = 6.38222e-09
vernier = 0.312147
vernier = 0.416196
Gmin = 3.1051e-09
vernier = 0.554928
Gmin = 9.88614e-10
vernier = 0.739903
vernier = 0.986537
Gmin = 1.61857e-10
vernier = 1
Gmin = 1.75204e-11
vernier = 0.5
vernier = 0.25
vernier = 0.125
vernier = 0.0625
vernier = 0.03125
vernier = 0.015625
vernier = 0.0078125
vernier = 0.00390625
vernier = 0.00195312
vernier = 0.000976562
Gmin = 2.19005e-11
vernier = 0.000488281
Gmin = 0
Gmin stepping failed

Starting source stepping with srcstepmethod=0
Could not converge to DC with sources off!
Starting source stepping with srcstepmethod=1
Source Step = 3.0303%
Source Step = 15.1545%
Source stepping failed

Pseudo Transient succeeded in finding the operating point at 327.716 ms.
.step rewe=10000 cere=1
.step rewe=100000 cere=1
.step rewe=5000 cere=1000
.step rewe=10000 cere=1000
.step rewe=100000 cere=1000
.step rewe=5000 cere=5000
.step rewe=10000 cere=5000
.step rewe=100000 cere=5000

Date: Thu Jan 11 16:44:19 2024
Total elapsed time: 8.716 seconds.

tnom = 27
temp = 27
method = trap
totiter = 10400
traniter = 0
tranpoints = 0
accept = 0
rejected = 2
matrix size = 87
fillins = 164
solver = Normal
Avg thread counts: 1.6/16.0/7.5/1.6
Matrix Compiler1: 11.98 KB object code size  4.0/3.0/[1.5]
Matrix Compiler2: 10.41 KB object code size  1.9/2.2/[1.4]

