Circuit: * C:\Users\12345\Documents\Dev\potentiostat\CAD\LTSpice\CPE\Paper CPE.asc

.OP point found by inspection.

Date: Fri Jan 26 16:16:37 2024
Total elapsed time: 0.074 seconds.

tnom = 27
temp = 27
method = trap
totiter = 0
traniter = 0
tranpoints = 0
accept = 0
rejected = 0
matrix size = 6
fillins = 0
solver = Normal
Avg thread counts: 16.0/0.0/0.0/9.7
Matrix Compiler1:      15 opcodes
Matrix Compiler2:      34 opcodes
