Circuit: * C:\Users\12345\Documents\Dev\potentiostat\CAD\LTSpice\CPE\Randles Tester\Randles_Tester.asc

Direct Newton iteration for .op point succeeded.

Date: Sat Feb  3 01:36:27 2024
Total elapsed time: 0.904 seconds.

tnom = 27
temp = 27
method = modified trap
totiter = 48505
traniter = 48502
tranpoints = 24252
accept = 24252
rejected = 0
matrix size = 42
fillins = 0
solver = Alternate
Avg thread counts: 1.1/1.2/1.2/1.1
Matrix Compiler1: 2.51 KB object code size  0.9/0.8/[0.7]
Matrix Compiler2: 3.29 KB object code size  0.8/1.0/[0.7]

