Circuit: * C:\Users\12345\OneDrive\Documents\Dev\potentiostat\CAD\TransAmp\Control Amp.asc

.step r=1 c=1
.step r=1000 c=1
.step r=5000 c=1
.step r=1 c=1000
.step r=1000 c=1000
.step r=5000 c=1000
.step r=1 c=5000
.step r=1000 c=5000
.step r=5000 c=5000

Date: Sat Dec 23 00:47:06 2023
Total elapsed time: 0.667 seconds.

tnom = 27
temp = 27
method = trap
totiter = 1139
traniter = 0
tranpoints = 0
accept = 0
rejected = 0
matrix size = 10
fillins = 3
solver = Normal
Avg thread counts: 6.2/0.0/11.1/6.2
Matrix Compiler1:      31 opcodes  0.1/[0.1]/0.2
Matrix Compiler2: off  [0.1]/0.2/0.2

