Circuit: * C:\Users\12345\OneDrive\Documents\Dev\potentiostat\CAD\TransAmp\Draft1.asc

.step r=1 c=1
.step r=1000 c=1
.step r=5000 c=1
.step r=1 c=1000
.step r=1000 c=1000
.step r=5000 c=1000
.step r=1 c=5000
.step r=1000 c=5000
.step r=5000 c=5000

Date: Wed Dec 20 17:08:34 2023
Total elapsed time: 0.978 seconds.

tnom = 27
temp = 27
method = trap
totiter = 879
traniter = 0
tranpoints = 0
accept = 0
rejected = 0
matrix size = 10
fillins = 3
solver = Normal
Avg thread counts: 7.5/0.0/13.0/7.5
Matrix Compiler1:      31 opcodes  0.3/[0.2]/0.3
Matrix Compiler2: off  [0.3]/0.3/0.3

