Circuit: * C:\Users\12345\Documents\Dev\potentiostat\CAD\LTSpice\Control Amp\LT1462\Control Amp LT1462.asc

.step r=5000 c=1
Direct Newton iteration failed to find .op point.  (Use ".option noopiter" to skip.)
Starting Gmin stepping
Gmin = 10
Gmin = 1.07374
Gmin = 0.115292
Gmin = 0.0123794
Gmin = 0.00132923
Gmin = 0.000142725
Gmin = 1.5325e-05
Gmin = 1.6455e-06
Gmin = 1.76685e-07
Gmin = 1.89714e-08
Gmin = 2.03704e-09
Gmin = 2.18725e-10
Gmin = 2.34854e-11
Gmin = 2.52173e-12
Gmin = 2.70769e-13
Gmin = 0
Gmin stepping succeeded in finding the operating point.

.step r=10000 c=1
.step r=100000 c=1
.step r=5000 c=1000
.step r=10000 c=1000
.step r=100000 c=1000
.step r=5000 c=5000
.step r=10000 c=5000
.step r=100000 c=5000

Date: Tue Jan 16 15:24:10 2024
Total elapsed time: 1.267 seconds.

tnom = 27
temp = 27
method = trap
totiter = 1113
traniter = 0
tranpoints = 0
accept = 0
rejected = 0
matrix size = 10
fillins = 2
solver = Normal
Avg thread counts: 6.3/0.0/11.1/6.3
Matrix Compiler1:      29 opcodes  0.3/[0.3]/0.3
Matrix Compiler2: off  [0.2]/0.4/0.3

